#Generated by Multiwfn
data_system
_cell_angle_alpha  90.000
_cell_angle_beta   90.000
_cell_angle_gamma  90.000
_cell_length_a   16.849607
_cell_length_b   13.534284
_cell_length_c   11.267851
loop_
_symmetry_equiv_pos_as_xyz
x,y,z
loop_
_atom_site_label
_atom_site_fract_x
_atom_site_fract_y
_atom_site_fract_z
P       0.01841726     -0.00000000      0.59539622
P       0.76841723     -0.00000000      0.59539623
P       0.51841726     -0.00000000      0.59539622
P       0.26841729     -0.00000000      0.59539621
P       0.01841727      0.25000000      0.59539622
P       0.76841724      0.25000000      0.59539623
P       0.51841726      0.25000000      0.59539621
P       0.26841729      0.25000000      0.59539620
P       0.01841726      0.50000000      0.59539622
P       0.76841723      0.50000000      0.59539623
P       0.51841726      0.50000000      0.59539622
P       0.26841728      0.50000000      0.59539621
P       0.01841727      0.75000000      0.59539622
P       0.76841724      0.75000000      0.59539623
P       0.51841726      0.75000000      0.59539621
P       0.26841729      0.75000000      0.59539620
P       0.23158277     -0.00000000      0.40460377
P       0.98158274     -0.00000000      0.40460378
P       0.73158271     -0.00000000      0.40460379
P       0.48158274     -0.00000000      0.40460378
P       0.23158276      0.25000000      0.40460377
P       0.98158273      0.25000000      0.40460378
P       0.73158271      0.25000000      0.40460380
P       0.48158274      0.25000000      0.40460379
P       0.23158277      0.50000000      0.40460377
P       0.98158274      0.50000000      0.40460378
P       0.73158272      0.50000000      0.40460379
P       0.48158274      0.50000000      0.40460378
P       0.23158276      0.75000000      0.40460377
P       0.98158273      0.75000000      0.40460378
P       0.73158271      0.75000000      0.40460380
P       0.48158274      0.75000000      0.40460379
P       0.14341729      0.12500000      0.40460380
P       0.89341725      0.12500000      0.40460376
P       0.64341724      0.12500000      0.40460376
P       0.39341727      0.12500000      0.40460380
P       0.14341729      0.37500000      0.40460380
P       0.89341725      0.37500000      0.40460376
P       0.64341724      0.37500000      0.40460376
P       0.39341727      0.37500000      0.40460380
P       0.14341729      0.62500000      0.40460380
P       0.89341725      0.62500000      0.40460376
P       0.64341724      0.62500000      0.40460376
P       0.39341727      0.62500000      0.40460380
P       0.14341729      0.87500000      0.40460380
P       0.89341725      0.87500000      0.40460376
P       0.64341724      0.87500000      0.40460376
P       0.39341727      0.87500000      0.40460380
P       0.10658275      0.12500000      0.59539624
P       0.85658271      0.12500000      0.59539620
P       0.60658273      0.12500000      0.59539620
P       0.35658276      0.12500000      0.59539624
P       0.10658275      0.37500000      0.59539624
P       0.85658271      0.37500000      0.59539620
P       0.60658273      0.37500000      0.59539620
P       0.35658276      0.37500000      0.59539624
P       0.10658275      0.62500000      0.59539624
P       0.85658271      0.62500000      0.59539620
P       0.60658273      0.62500000      0.59539620
P       0.35658276      0.62500000      0.59539624
P       0.10658275      0.87500000      0.59539624
P       0.85658271      0.87500000      0.59539620
P       0.60658273      0.87500000      0.59539620
P       0.35658276      0.87500000      0.59539624
